8

C          0.59134       -0.94800        1.10953
C          2.11134       -0.94800        1.10953
H          0.23468       -0.85499        0.10502
H          0.23467       -0.12457        1.69233
H          0.23467       -1.86443        1.53124
H          2.46800       -0.03157        0.68782
H          2.46801       -1.77143        0.52673
H          2.46801       -1.04101        2.11404
7

C          0.59134       -0.94800        1.10953
N          2.06134       -0.94800        1.10953
H          0.23468       -0.20437        0.42784
H          0.23467       -0.72946        2.09438
H          0.23467       -1.91018        0.80637
H          2.40134       -0.03078        1.39852
H          2.40134       -1.15633        0.17070
6

C          0.59134       -0.94800        1.10953
O          2.01134       -0.94800        1.10953
H          0.23468       -0.90290        0.10173
H          0.23467       -0.09777        1.65248
H          0.23467       -1.84333        1.57437
H          2.33467       -0.13635        0.68813
