7

C          0.59134       -0.94800        1.10953
N          2.06134       -0.94800        1.10953
H          0.23468       -0.20437        0.42784
H          0.23467       -0.72946        2.09438
H          0.23467       -1.91018        0.80637
H          2.40134       -0.03078        1.39852
H          2.40134       -1.15633        0.17070
